RC Low-Pass Filter
* Simple RC low-pass filter test
V1 in 0 DC 5
R1 in out 1k
C1 out 0 1u

* Analysis
.op
.ac dec 10 10 100k
.tran 10u 1m

.end
